@<TRIPOS>MOLECULE
HETD
 75 79 0 0 0
SMALL
GASTEIGER

@<TRIPOS>ATOM
      1 P          -6.0250    4.0423    6.9180 P.3     1  UNL1        0.2182
      2 O          -5.6287    4.6567    5.5899 O.2     1  UNL1       -0.5170
      3 O          -5.8320    2.5663    7.1773 O.co2   1  UNL1       -0.4371
      4 O          -7.6279    4.3257    7.0607 O.3     1  UNL1       -0.3246
      5 C          -8.2188    3.8068    8.2386 C.3     1  UNL1        0.0836
      6 C          -9.7257    3.7992    8.0841 C.3     1  UNL1        0.1133
      7 O         -10.1756    2.6955    7.2684 O.3     1  UNL1       -0.3456
      8 C         -10.4431    3.6011    9.3958 C.3     1  UNL1        0.1142
      9 O         -10.3565    4.7144   10.2468 O.3     1  UNL1       -0.3864
     10 C         -11.8365    3.2293    8.9395 C.3     1  UNL1        0.1391
     11 O         -12.5216    4.3335    8.3485 O.3     1  UNL1       -0.3170
     12 C         -11.4726    2.3108    7.7712 C.3     1  UNL1        0.1674
     13 N         -11.4214    0.9103    8.1399 N.ar    1  UNL1       -0.2855
     14 C         -10.3048    0.1772    8.4431 C.ar    1  UNL1        0.1004
     15 N         -10.5947   -1.0907    8.6726 N.ar    1  UNL1       -0.2306
     16 C         -11.9584   -1.1749    8.5015 C.ar    1  UNL1        0.1473
     17 C         -12.8648   -2.2421    8.6032 C.ar    1  UNL1        0.1472
     18 N         -12.4376   -3.5382    8.9398 N.pl3   1  UNL1       -0.3413
     19 N         -14.1863   -1.9942    8.3670 N.ar    1  UNL1       -0.2188
     20 C         -14.5533   -0.7360    8.0464 C.ar    1  UNL1        0.1205
     21 N         -13.7717    0.3447    7.9076 N.ar    1  UNL1       -0.2159
     22 C         -12.4878    0.0596    8.1599 C.ar    1  UNL1        0.1674
     23 O          -5.5156    4.9531    8.1313 O.3     1  UNL1       -0.2703
     24 P          -4.0757    5.1338    8.8012 P.3     1  UNL1        0.2182
     25 O          -3.7299    3.9848    9.7196 O.2     1  UNL1       -0.5170
     26 O          -3.9740    6.5460    9.3601 O.co2   1  UNL1       -0.4371
     27 O          -3.0878    5.0834    7.5148 O.3     1  UNL1       -0.3246
     28 C          -3.0098    6.2983    6.7911 C.3     1  UNL1        0.0836
     29 C          -1.5882    6.8341    6.9303 C.3     1  UNL1        0.1131
     30 O          -0.6498    5.9503    6.2682 O.3     1  UNL1       -0.3476
     31 C          -1.4617    8.1919    6.2524 C.3     1  UNL1        0.1133
     32 O          -0.3724    8.9005    6.8529 O.3     1  UNL1       -0.3864
     33 C          -1.0816    7.7878    4.8457 C.3     1  UNL1        0.1265
     34 O          -0.4097    8.8265    4.1437 O.3     1  UNL1       -0.3849
     35 C          -0.1625    6.6204    5.1121 C.3     1  UNL1        0.1574
     36 N          -0.0151    5.7258    3.9744 N.pl3   1  UNL1       -0.2846
     37 C           1.2581    5.3769    3.5533 C.2     1  UNL1        0.0071
     38 C           1.4865    4.4246    2.6347 C.2     1  UNL1        0.0318
     39 C           2.8491    4.0811    2.1789 C.2     1  UNL1        0.2390
     40 O           3.0441    3.2282    1.3157 O.2     1  UNL1       -0.2707
     41 N           3.8537    4.7986    2.7811 N.am    1  UNL1       -0.3256
     42 C           0.3493    3.6572    2.0271 C.3     1  UNL1       -0.0019
     43 C          -0.9984    4.0770    2.5344 C.2     1  UNL1       -0.0654
     44 C          -1.1103    5.0381    3.4634 C.2     1  UNL1       -0.0049
     45 P         -13.8137    4.9176    9.1350 P.3     1  UNL1        0.2104
     46 O         -14.6614    5.6812    8.1467 O.2     1  UNL1       -0.5173
     47 O         -14.5721    3.5132    9.4823 O.3     1  UNL1       -0.3436
     48 O         -13.3475    5.5513   10.4189 O.co2   1  UNL1       -0.4374
     49 H          -7.8619    2.7800    8.4066 H       1  UNL1        0.0591
     50 H          -7.9407    4.4358    9.0971 H       1  UNL1        0.0591
     51 H          -9.9538    4.7780    7.6369 H       1  UNL1        0.0647
     52 H         -10.0047    2.8259   10.0415 H       1  UNL1        0.0648
     53 H         -10.3800    4.4121   11.1892 H       1  UNL1        0.2100
     54 H         -12.4670    2.8403    9.7526 H       1  UNL1        0.0673
     55 H         -12.2612    2.4236    7.0126 H       1  UNL1        0.0867
     56 H          -9.2881    0.5946    8.4899 H       1  UNL1        0.1030
     57 H         -13.1223   -4.3046    9.0081 H       1  UNL1        0.1438
     58 H         -11.4399   -3.7215    9.1181 H       1  UNL1        0.1438
     59 H         -15.6286   -0.5767    7.8778 H       1  UNL1        0.1048
     60 H          -3.7255    7.0254    7.2024 H       1  UNL1        0.0591
     61 H          -3.2551    6.1309    5.7320 H       1  UNL1        0.0591
     62 H          -1.3702    6.9094    8.0059 H       1  UNL1        0.0647
     63 H          -2.3553    8.8302    6.3156 H       1  UNL1        0.0647
     64 H          -0.4495    8.8503    7.8386 H       1  UNL1        0.2100
     65 H          -1.9462    7.5544    4.2070 H       1  UNL1        0.0663
     66 H          -0.0036    9.4543    4.7926 H       1  UNL1        0.2101
     67 H           0.8568    6.9954    5.2867 H       1  UNL1        0.0840
     68 H           2.1194    5.9030    3.9907 H       1  UNL1        0.0788
     69 H           4.8359    4.6250    2.5241 H       1  UNL1        0.1452
     70 H           3.6248    5.5103    3.4896 H       1  UNL1        0.1452
     71 H           0.4893    2.5901    2.2543 H       1  UNL1        0.0358
     72 H           0.3643    3.8608    0.9462 H       1  UNL1        0.0358
     73 H          -1.9038    3.5919    2.1409 H       1  UNL1        0.0588
     74 H          -2.1127    5.2935    3.8375 H       1  UNL1        0.0781
     75 H         -14.6310    3.4041   10.4645 H       1  UNL1        0.2176
@<TRIPOS>UNITY_ATOM_ATTR
3 1
charge -1
26 1
charge -1
48 1
charge -1
@<TRIPOS>BOND
     1     1     3    1
     2     1     4    1
     3     1     2    2
     4     1    23    1
     5     4     5    1
     6     6     5    1
     7     6     8    1
     8     7    12    1
     9     7     6    1
    10     8     9    1
    11    10     8    1
    12    10    11    1
    13    11    45    1
    14    12    13    1
    15    12    10    1
    16    13    22   ar
    17    13    14   ar
    18    14    15   ar
    19    16    15   ar
    20    16    17   ar
    21    17    18    1
    22    19    17   ar
    23    20    19   ar
    24    21    20   ar
    25    21    22   ar
    26    22    16   ar
    27    23    24    1
    28    24    27    1
    29    24    25    2
    30    24    26    1
    31    29    28    1
    32    28    27    1
    33    30    29    1
    34    31    32    1
    35    31    29    1
    36    33    35    1
    37    33    31    1
    38    33    34    1
    39    35    30    1
    40    35    36    1
    41    37    36    1
    42    38    37    2
    43    39    41   am
    44    39    38    1
    45    40    39    2
    46    42    43    1
    47    42    38    1
    48    43    44    2
    49    44    36    1
    50    45    47    1
    51    45    48    1
    52    46    45    2
    53     5    49    1
    54     5    50    1
    55     6    51    1
    56     8    52    1
    57     9    53    1
    58    10    54    1
    59    12    55    1
    60    14    56    1
    61    18    57    1
    62    18    58    1
    63    20    59    1
    64    28    60    1
    65    28    61    1
    66    29    62    1
    67    31    63    1
    68    32    64    1
    69    33    65    1
    70    34    66    1
    71    35    67    1
    72    37    68    1
    73    41    69    1
    74    41    70    1
    75    42    71    1
    76    42    72    1
    77    43    73    1
    78    44    74    1
    79    47    75    1
